generator: already installed, replacing
stashing as generator:0
transient: already installed, replacing
stashing as transient:0
transient: already installed, replacing
stashing as transient:0
default plugins
spice 
.subckt a ( 1 2 3 )
r1 ( 1 2 )  3.
.ends a
X1 ( 1 3 4 )  a 
end of crashtest
